Mineral: Calcite
Rruff sample: R050048
Ideal chemistry: Ca(CO_3_)
Locality: Magdalena, New Mexico, USA
Source: University of Arizona Mineral Museum
Description: Colorless massive
Measured chemistry: (Ca_0.99_Zn_0.01_)CO_3_
Diffraction sample description: Powder
Cell parameters: a: 4.9793 b: 4.9793 c: 17.0244 alpha: 90 beta: 90 gamma: 120 volume: 365.55 crystal system: hexagonal
Filetype: Raman RAW
Raman wavelength: 532
x	intensity
143.066	579.67
160.423	1138.81
177.779	976.197
195.135	800.768
212.491	794.037
229.847	871.116
247.204	1056.39
264.56	1703.09
281.916	3092.6
299.272	2581.2
316.628	1373.49
333.985	980.2
351.341	894.4
368.697	890.467
386.053	895.16
403.409	896.973
420.766	890.544
438.122	893.219
455.478	910.783
472.834	921.635
490.19	943.763
507.547	925.098
524.903	948.789
542.259	969.468
559.615	977.422
576.971	984.453
594.328	1005.54
611.684	1002.43
629.04	1021.48
646.396	1032.56
663.752	1070.82
681.109	1137.36
698.465	1458.93
715.821	2312.16
733.177	1615.11
750.533	1186.68
767.89	1139.55
785.246	1161.42
802.602	1163.39
819.958	1169.22
837.314	1182.7
854.671	1200.79
872.027	1214.43
889.383	1235.6
906.739	1249.82
924.095	1256.74
941.452	1272.8
958.808	1308.45
976.164	1307.82
993.52	1349.74
1010.88	1402.84
1028.23	1443.54
1045.59	1823.87
1062.94	3232.14
1080.3	9047.8
1097.66	12337
1115.01	2587.37
1132.37	1571.43
1149.73	1465.83
1167.08	1473.68
1184.44	1471.89
1201.8	1482.14
1219.15	1498.81
1236.51	1501.21
1253.86	1527.7
1271.22	1524.66
1288.58	1552.84
1305.93	1553.63
1323.29	1572.48
1340.64	1612.19
1358	1624.46
1375.36	1658.66
1392.71	1666.04
1410.07	1754.49
1427.42	1934.99
1444.78	2077.35
1462.14	1800.76
1479.49	1780.23
1496.85	1793.34
1514.21	1800.71
1531.56	1833.32
1548.92	1845.62
1566.28	1862.11
1583.63	1886.14
1600.99	1913.74
1618.34	1956.92
1635.7	1958.19
1653.06	1997.43
1670.41	1991.07
1687.77	2037.41
1705.12	2095.03
1722.48	2131.84
1739.84	2302.29
1757.19	2589.12
1774.55	2235.64
1791.91	2234.3
1809.26	2248.47
1826.62	2260.68
1843.97	2297.56
1861.33	2327.55
1878.69	2326.29
1896.04	2363.27
1913.4	2403
1930.76	2404.94
1948.11	2451.99
1965.47	2466.55
1982.82	2504.97
2000.18	2577.58
2017.54	2570.51
2034.89	2628.45
2052.25	2656.02
2069.61	2652.89
2086.96	2707.34
2104.32	2766.36
2121.67	2777.03
2139.03	2855
2156.39	2878.59
2173.74	2898
2191.1	2914.24
2208.45	2931.26
2225.81	2970.25
2243.17	2991.05
2260.52	3001.57
2277.88	2984.37
2295.24	3035.34
2312.59	3046.77
2329.95	3128.82
2347.3	3115.93
2364.66	3119.08
2382.02	3163.3
2399.37	3185.22
2416.73	3224.18
2434.09	3217.84
2451.44	3240.39
2468.8	3238.71
2486.15	3248.86
2503.51	3292.76
2520.87	3341.33
2538.22	3328.2
2555.58	3294.61
2572.93	3362.97
2590.29	3383.4
2607.65	3362.19
2625	3408.13
2642.36	3454.59
2659.72	3459.32
2677.07	3427.47
2694.43	3437.87
2711.78	3483.94
2729.14	3496.94
2746.5	3527.48
2763.85	3563.49
2781.21	3518.54
2798.57	3555.72
2815.92	3570.75
2833.28	3601.18
2850.63	3668.23
2867.99	3679.55
2885.35	3691.23
2902.7	3680.43
2920.06	3695.68
2937.41	3673.74
2954.77	3689.86
2972.13	3738.36
2989.48	3692.3
3006.84	3718.72
3024.2	3762
3041.55	3739.53
3058.91	3795.39
3076.26	3811.72
3093.62	3788.6
3110.98	3793.67
3128.33	3837.18
3145.69	3844
3163.05	3865.58
3180.4	3893.26
3197.76	3860.07
3215.11	3871.16
3232.47	3848.09
3249.83	3844.77
3267.18	3887.49
3284.54	3906.84
3301.89	3887.52
3319.25	3904.2
3336.61	3894.29
3353.96	3910.97
3371.32	3930.93
3388.68	3936.18
3406.03	3905.21
3423.39	3923.46
3440.74	3950.8
3458.1	3948.02
3475.46	3860.68
3492.81	3887.69
3510.17	3933.43
3527.53	3939.49
3544.88	3898.72
3562.24	3884.69
3579.59	3988.86
3596.95	3914.86
3614.31	3896.08
3631.66	3885.71
3649.02	3876.59
3666.38	3886.97
3683.73	3918.34
3701.09	3883.55
3718.44	3844.63
3735.8	3818.11
3753.16	3845.59
3770.51	3840.01
3787.87	3840.55
3805.22	3819.06
3822.58	3835
3839.94	3846.27
3857.29	3751.07
3874.65	3711.89
3892.01	3646.97
3909.36	3606.79
3926.72	3572.06
3944.07	3495.37
3961.43	3453.03
3978.79	3412.39
3996.14	3323.62
4013.5	3331.88
4030.86	3312.91
4048.21	3237.6
4065.57	3228.98
4082.92	3158.53
4100.28	3142.22
4117.64	3073.28
4134.99	3033.21
4152.35	3004.85
4169.7	2976.28
4187.06	2934.01
4204.42	2914.32
4221.77	2864.4
4239.13	2815.6
4256.49	2822.09
4273.84	2803.54
4291.2	2828.46
4308.56	2851.24
4325.91	2825.45
4343.27	2811.28
4360.62	2791.8
4377.98	2797.55
4395.34	2807.12
4412.69	2791.35
4430.05	2789.99
4447.4	2798.52
4464.76	2776.76
4482.12	2767.01
4499.47	2764.64
4516.83	2760.45
4534.19	2726.78
4551.54	2789.25
4568.9	2757.39
4586.25	2745.71
4603.61	2758.38
4620.97	2718.14
4638.32	2719.28
4655.68	2751.58
4673.03	2716.85
4690.39	2714.16
4707.75	2643.91
4725.1	2671.11
4742.46	2636.87
4759.82	2652.52
4777.17	2637.63
4794.53	2641.07
4811.88	2610.57
4829.24	2588.27
4846.6	2596.61
4863.95	2585.95
4881.31	2568.46
4898.67	2498.25
4916.02	2568.34
4933.38	2542.38
4950.73	2453.56
4968.09	2465.2
4985.45	2417.44
5002.8	2449.21
5020.16	2412.58
5037.52	2380.81
5054.87	2409.47
5072.23	2305.45
5089.58	2323.17
5106.94	2319.47
5124.3	2271.37
5141.65	2266.6
5159.01	2189.9
5176.36	2192.83
5193.72	2253.21
5211.08	2174.61
5228.43	2192.74
5245.79	2147.63
5263.15	2102
5280.5	2079.9
5297.86	2099.65
5315.21	2072.65
5332.57	2039.47
5349.93	2001.07
5367.28	1995.45
5384.64	1954.08
5401.99	1912.01
5419.35	1907.48
5436.71	1888.29
5454.06	1850.39
5471.42	1837.17
5488.78	1823.71
5506.13	1807.16
5523.49	1780.85
5540.85	1722.83
5558.2	1737.01
5575.56	1688.24
5592.91	1683.9
5610.27	1663.61
5627.63	1608.94
5644.98	1579.87
5662.34	1566.46
5679.69	1525.6
5697.05	1524.87
5714.41	1515.65
5731.76	1451.83
5749.12	1445.2
5766.48	1410.11
5783.83	1418.39
5801.19	1377.35
5818.54	1383.32
5835.9	1326.99
5853.26	1330.89
5870.61	1295.24
5887.97	1274.15
5905.32	1267.23
5922.68	1214.97
5940.04	1195.49
5957.39	1212.81
5974.75	1175.32
5992.11	1154.29
6009.46	1138.58
6026.82	1099.59
6044.18	1099.45
6061.53	1077.59
6078.89	1041.92
6096.24	1035.53
6113.6	1007.54
6130.96	1002.14
6148.31	983.699
6165.67	971.83
6183.02	926.872
6200.38	926.912
6217.74	916.098
6235.09	890.145
6252.45	864.237
6269.81	852.697
6287.16	841.236
6304.52	805.052
6321.87	791.303
6339.23	775.297
6356.59	768.317
6373.94	738.287
6391.3	751.951
6408.65	729.691
6426.01	700.102
6443.37	685.646
6460.72	668.837
6478.08	694.255
6495.44	654.343
6512.79	643.173
6530.15	615.82
6547.5	606.399
6564.86	584.902
6582.22	527.137
